Cenario_1/Tabelas_01/SE_VLN_Node-Sem_RED.Txt

LINE-GROUND and LINE-LINE VOLTAGES BY BUS & NODE

Bus    Node    VLN (kV)   Angle      pu     Base kV    Node-Node   VLL (kV)  Angle      pu

99 ... 1       7.7929 /_   -1.2    0.9781    13.800        1-2     13.498 /_   28.8    0.9781
   -   2       7.7929 /_ -121.2    0.9781    13.800        2-3     13.498 /_  -91.2    0.9781
   -   3       7.7929 /_  118.8    0.9781    13.800        3-1     13.498 /_  148.8    0.9781
1 .... 1       7.7896 /_   -1.2   0.97768    13.800        1-2     13.492 /_   28.8   0.97768
   -   2       7.7896 /_ -121.2   0.97768    13.800        2-3     13.492 /_  -91.2   0.97768
   -   3       7.7896 /_  118.8   0.97768    13.800        3-1     13.492 /_  148.8   0.97768
2 .... 1       7.7857 /_   -1.2   0.97719    13.800        1-2     13.485 /_   28.8   0.97719
   -   2       7.7857 /_ -121.2   0.97719    13.800        2-3     13.485 /_  -91.2   0.97719
   -   3       7.7857 /_  118.8   0.97719    13.800        3-1     13.485 /_  148.8   0.97719
6 .... 1        7.783 /_   -1.2   0.97685    13.800        1-2     13.481 /_   28.8   0.97685
   -   2        7.783 /_ -121.2   0.97685    13.800        2-3     13.481 /_  -91.2   0.97685
   -   3        7.783 /_  118.8   0.97685    13.800        3-1     13.481 /_  148.8   0.97685
7 .... 1        7.782 /_   -1.2   0.97672    13.800        1-2     13.479 /_   28.8   0.97672
   -   2        7.782 /_ -121.2   0.97672    13.800        2-3     13.479 /_  -91.2   0.97672
   -   3        7.782 /_  118.8   0.97672    13.800        3-1     13.479 /_  148.8   0.97672
5 .... 1       7.7871 /_   -1.2   0.97736    13.800        1-2     13.488 /_   28.8   0.97736
   -   2       7.7871 /_ -121.2   0.97736    13.800        2-3     13.488 /_  -91.2   0.97736
   -   3       7.7871 /_  118.8   0.97736    13.800        3-1     13.488 /_  148.8   0.97736
3 .... 1        7.785 /_   -1.2    0.9771    13.800        1-2     13.484 /_   28.8    0.9771
   -   2        7.785 /_ -121.2    0.9771    13.800        2-3     13.484 /_  -91.2    0.9771
   -   3        7.785 /_  118.8    0.9771    13.800        3-1     13.484 /_  148.8    0.9771
4 .... 1       7.7846 /_   -1.2   0.97705    13.800        1-2     13.483 /_   28.8   0.97705
   -   2       7.7846 /_ -121.2   0.97705    13.800        2-3     13.483 /_  -91.2   0.97705
   -   3       7.7846 /_  118.8   0.97705    13.800        3-1     13.483 /_  148.8   0.97705
BT-TR1 1      0.20919 /_  -33.8   0.95348     0.380        1-2    0.36232 /_   -3.8   0.95348
   -   2      0.20919 /_ -153.8   0.95348     0.380        2-3    0.36232 /_ -123.8   0.95348
   -   3      0.20919 /_   86.2   0.95348     0.380        3-1    0.36232 /_  116.2   0.95348
BT-TR2 1      0.20908 /_  -33.8   0.95298     0.380        1-2    0.36213 /_   -3.8   0.95298
   -   2      0.20908 /_ -153.8   0.95298     0.380        2-3    0.36213 /_ -123.8   0.95298
   -   3      0.20908 /_   86.2   0.95298     0.380        3-1    0.36213 /_  116.2   0.95298
BT-TR3 1      0.20906 /_  -33.8    0.9529     0.380        1-2     0.3621 /_   -3.8    0.9529
   -   2      0.20906 /_ -153.8    0.9529     0.380        2-3     0.3621 /_ -123.8    0.9529
   -   3      0.20906 /_   86.2    0.9529     0.380        3-1     0.3621 /_  116.2    0.9529
BT-TR4 1      0.20905 /_  -33.8   0.95284     0.380        1-2    0.36208 /_   -3.8   0.95284
   -   2      0.20905 /_ -153.8   0.95284     0.380        2-3    0.36208 /_ -123.8   0.95284
   -   3      0.20905 /_   86.2   0.95284     0.380        3-1    0.36208 /_  116.2   0.95284
BT-TR5 1      0.20912 /_  -33.8   0.95316     0.380        1-2     0.3622 /_   -3.8   0.95316
   -   2      0.20912 /_ -153.8   0.95316     0.380        2-3     0.3622 /_ -123.8   0.95316
   -   3      0.20912 /_   86.2   0.95316     0.380        3-1     0.3622 /_  116.2   0.95316
BT-TR6 1        0.209 /_  -33.8   0.95264     0.380        1-2      0.362 /_   -3.8   0.95264
   -   2        0.209 /_ -153.8   0.95264     0.380        2-3      0.362 /_ -123.8   0.95264
   -   3        0.209 /_   86.2   0.95264     0.380        3-1      0.362 /_  116.2   0.95264
BT-TR7 1      0.20897 /_  -33.8    0.9525     0.380        1-2    0.36195 /_   -3.8    0.9525
   -   2      0.20897 /_ -153.8    0.9525     0.380        2-3    0.36195 /_ -123.8    0.9525
   -   3      0.20897 /_   86.2    0.9525     0.380        3-1    0.36195 /_  116.2    0.9525
